CPDS_validation_cosim/Distribution/Bus11/IEEE34Bus/ieee34-1_VLN_Node_all.Txt

LINE-GROUND and LINE-LINE VOLTAGES BY BUS & NODE

Bus       Node    VLN (kV)   Angle      pu     Base kV    Node-Node   VLL (kV)  Angle      pu

SOURCEBUS 1       41.829 /_    0.0      1.05    69.000        1-2      72.45 /_   30.0      1.05
   -      2       41.829 /_ -120.0      1.05    69.000        2-3      72.45 /_  -90.0      1.05
   -      3       41.829 /_  120.0      1.05    69.000        3-1      72.45 /_  150.0      1.05
800 ..... 1       15.095 /_  -30.0      1.05    24.900        1-2     26.145 /_    0.0      1.05
   -      2       15.095 /_ -150.0      1.05    24.900        2-3     26.145 /_ -120.0      1.05
   -      3       15.095 /_   90.0      1.05    24.900        3-1     26.145 /_  120.0      1.05
802 ..... 1       15.066 /_  -30.0     1.048    24.900        1-2     26.104 /_    0.0    1.0484
   -      2       15.075 /_ -150.1    1.0486    24.900        2-3     26.109 /_ -120.1    1.0485
   -      3       15.071 /_   89.9    1.0484    24.900        3-1     26.097 /_  119.9    1.0481
806 ..... 1       15.047 /_  -30.1    1.0466    24.900        1-2     26.078 /_   -0.1    1.0473
   -      2       15.063 /_ -150.1    1.0478    24.900        2-3     26.085 /_ -120.1    1.0476
   -      3       15.056 /_   89.9    1.0473    24.900        3-1     26.066 /_  119.9    1.0468
808 ..... 1       14.682 /_  -30.6    1.0213    24.900        1-2     25.584 /_   -0.5    1.0275
   -      2       14.843 /_ -150.7    1.0325    24.900        2-3     25.666 /_ -120.8    1.0308
   -      3       14.778 /_   89.2     1.028    24.900        3-1     25.487 /_  119.2    1.0236
810 ..... 2       14.841 /_ -150.7    1.0324    24.900
812 ..... 1       14.258 /_  -31.3   0.99178    24.900        1-2     25.014 /_   -0.9    1.0046
   -      2       14.602 /_ -151.4    1.0157    24.900        2-3      25.19 /_ -121.7    1.0116
   -      3        14.45 /_   88.3    1.0051    24.900        3-1     24.812 /_  118.3   0.99647
814 ..... 1        13.92 /_  -31.8   0.96826    24.900        1-2     24.559 /_   -1.3    0.9863
   -      2       14.411 /_ -152.0    1.0024    24.900        2-3     24.813 /_ -122.4   0.99649
   -      3       14.189 /_   87.7   0.98696    24.900        3-1     24.276 /_  117.6   0.97495
814R .... 1         14.7 /_  -31.8    1.0225    24.900        1-2     25.466 /_   -1.9    1.0227
   -      2       14.679 /_ -152.0    1.0211    24.900        2-3     25.506 /_ -122.1    1.0243
   -      3       14.719 /_   87.7    1.0238    24.900        3-1     25.408 /_  117.9    1.0204
850 ..... 1         14.7 /_  -31.8    1.0225    24.900        1-2     25.466 /_   -1.9    1.0227
   -      2       14.679 /_ -152.0    1.0211    24.900        2-3     25.505 /_ -122.1    1.0243
   -      3       14.719 /_   87.7    1.0238    24.900        3-1     25.407 /_  117.9    1.0204
816 ..... 1       14.695 /_  -31.8    1.0222    24.900        1-2     25.459 /_   -1.9    1.0225
   -      2       14.676 /_ -152.0    1.0208    24.900        2-3     25.499 /_ -122.1    1.0241
   -      3       14.715 /_   87.6    1.0236    24.900        3-1     25.399 /_  117.9    1.0201
818 ..... 1       14.685 /_  -31.8    1.0215    24.900
824 ..... 1       14.583 /_  -31.9    1.0144    24.900        1-2     25.264 /_   -2.1    1.0146
   -      2       14.549 /_ -152.2    1.0121    24.900        2-3     25.292 /_ -122.4    1.0158
   -      3       14.592 /_   87.4     1.015    24.900        3-1     25.176 /_  117.7    1.0111
820 ..... 1       14.345 /_  -31.9   0.99788    24.900
822 ..... 1       14.302 /_  -31.9   0.99485    24.900
826 ..... 2       14.547 /_ -152.2    1.0119    24.900
828 ..... 1       14.574 /_  -31.9    1.0138    24.900        1-2     25.249 /_   -2.1     1.014
   -      2        14.54 /_ -152.2    1.0114    24.900        2-3     25.276 /_ -122.4    1.0151
   -      3       14.582 /_   87.4    1.0143    24.900        3-1     25.157 /_  117.7    1.0103
830 ..... 1       14.353 /_  -32.1   0.99837    24.900        1-2      24.88 /_   -2.4    0.9992
   -      2       14.316 /_ -152.6   0.99579    24.900        2-3     24.885 /_ -122.8   0.99939
   -      3       14.333 /_   86.8   0.99699    24.900        3-1     24.713 /_  117.4   0.99249
854 ..... 1       14.347 /_  -32.1   0.99795    24.900        1-2     24.871 /_   -2.4   0.99882
   -      2        14.31 /_ -152.6   0.99542    24.900        2-3     24.875 /_ -122.9   0.99901
   -      3       14.326 /_   86.8   0.99655    24.900        3-1     24.702 /_  117.4   0.99203
832 ..... 1       15.049 /_  -32.7    1.0468    24.900        1-2     25.998 /_   -3.1    1.0441
   -      2       14.893 /_ -153.2    1.0359    24.900        2-3     26.014 /_ -123.5    1.0447
   -      3       15.009 /_   85.9     1.044    24.900        3-1     25.841 /_  116.6    1.0378
858 ..... 1       15.017 /_  -32.8    1.0446    24.900        1-2     25.947 /_   -3.2    1.0421
   -      2       14.866 /_ -153.3    1.0341    24.900        2-3     25.966 /_ -123.6    1.0428
   -      3       14.975 /_   85.8    1.0417    24.900        3-1     25.779 /_  116.5    1.0353
834 ..... 1        14.98 /_  -32.8     1.042    24.900        1-2     25.889 /_   -3.3    1.0397
   -      2       14.834 /_ -153.4    1.0318    24.900        2-3      25.91 /_ -123.8    1.0406
   -      3       14.937 /_   85.6     1.039    24.900        3-1     25.708 /_  116.4    1.0324
860 ..... 1       14.974 /_  -32.8    1.0416    24.900        1-2     25.879 /_   -3.3    1.0393
   -      2       14.828 /_ -153.4    1.0314    24.900        2-3     25.901 /_ -123.8    1.0402
   -      3       14.932 /_   85.6    1.0387    24.900        3-1     25.697 /_  116.4     1.032
842 ..... 1        14.98 /_  -32.8     1.042    24.900        1-2     25.888 /_   -3.3    1.0397
   -      2       14.833 /_ -153.4    1.0318    24.900        2-3     25.909 /_ -123.8    1.0405
   -      3       14.936 /_   85.6     1.039    24.900        3-1     25.707 /_  116.4    1.0324
836 ..... 1       14.971 /_  -32.8    1.0414    24.900        1-2     25.873 /_   -3.3    1.0391
   -      2       14.822 /_ -153.4    1.0311    24.900        2-3     25.894 /_ -123.8    1.0399
   -      3        14.93 /_   85.6    1.0385    24.900        3-1     25.692 /_  116.4    1.0318
840 ..... 1       14.971 /_  -32.8    1.0414    24.900        1-2     25.872 /_   -3.3     1.039
   -      2       14.822 /_ -153.4     1.031    24.900        2-3     25.893 /_ -123.8    1.0399
   -      3       14.929 /_   85.6    1.0385    24.900        3-1     25.692 /_  116.4    1.0318
862 ..... 1       14.971 /_  -32.8    1.0414    24.900        1-2     25.873 /_   -3.3    1.0391
   -      2       14.822 /_ -153.4     1.031    24.900        2-3     25.894 /_ -123.8    1.0399
   -      3        14.93 /_   85.6    1.0385    24.900        3-1     25.692 /_  116.4    1.0318
844 ..... 1       14.977 /_  -32.9    1.0418    24.900        1-2     25.882 /_   -3.3    1.0395
   -      2        14.83 /_ -153.4    1.0316    24.900        2-3     25.904 /_ -123.8    1.0403
   -      3       14.933 /_   85.6    1.0387    24.900        3-1     25.701 /_  116.4    1.0322
846 ..... 1       14.981 /_  -32.9    1.0421    24.900        1-2     25.886 /_   -3.3    1.0396
   -      2        14.83 /_ -153.4    1.0316    24.900        2-3     25.908 /_ -123.8    1.0405
   -      3       14.937 /_   85.5     1.039    24.900        3-1     25.707 /_  116.4    1.0324
848 ..... 1       14.982 /_  -32.9    1.0421    24.900        1-2     25.887 /_   -3.4    1.0396
   -      2       14.831 /_ -153.5    1.0316    24.900        2-3     25.909 /_ -123.8    1.0405
   -      3       14.937 /_   85.5     1.039    24.900        3-1     25.708 /_  116.4    1.0324
852R .... 1       15.049 /_  -32.7    1.0468    24.900        1-2     25.998 /_   -3.1    1.0441
   -      2       14.893 /_ -153.2     1.036    24.900        2-3     26.014 /_ -123.5    1.0447
   -      3       15.009 /_   85.9     1.044    24.900        3-1     25.841 /_  116.6    1.0378
888 ..... 1       2.4269 /_  -34.2    1.0105     4.160        1-2     4.1923 /_   -4.6    1.0078
   -      2       2.4006 /_ -154.7   0.99952     4.160        2-3     4.1952 /_ -125.1    1.0085
   -      3       2.4214 /_   84.3    1.0082     4.160        3-1     4.1674 /_  115.1    1.0018
856 ..... 2       14.309 /_ -152.6   0.99533    24.900
852 ..... 1        13.92 /_  -32.7   0.96828    24.900        1-2     24.187 /_   -2.9   0.97136
   -      2       13.936 /_ -153.2   0.96942    24.900        2-3     24.202 /_ -123.7   0.97196
   -      3       13.883 /_   85.9   0.96568    24.900        3-1     23.903 /_  116.6   0.95995
864 ..... 1       15.017 /_  -32.8    1.0446    24.900
838 ..... 2        14.82 /_ -153.4    1.0309    24.900
890 ..... 1       2.2282 /_  -34.7   0.92774     4.160        1-2     3.8724 /_   -5.3   0.93086
   -      2       2.2204 /_ -155.8   0.92449     4.160        2-3     3.8644 /_ -126.1   0.92893
   -      3       2.2239 /_   83.4   0.92593     4.160        3-1     3.8197 /_  114.4   0.91819
